          20
  
 C     -1.1289070    -0.3671708    -2.0500540
 C     -0.4096125    -0.9559822    -0.8699553
 O     -0.1982541    -2.1427325    -0.6786528
 O      0.0000000     0.0000000     0.0000000
 H     -1.8713194    -1.0725072    -2.4211672
 H     -0.4077896    -0.1312726    -2.8389633
 H     -1.6138668     0.5686577    -1.7552423
 H     -0.4237338    -0.1764570     0.8643759
 C      4.2485279    -2.2465632    -2.7372612
 C      3.5993252    -1.1675564    -1.8811337
 O      2.3356430    -0.7192953    -2.4231096
 H      5.2171010    -2.5340723    -2.3115668
 H      4.4104840    -1.8854483    -3.7583187
 H      3.6169941    -3.1419060    -2.7780014
 H      4.2254750    -0.2713303    -1.8455927
 H      3.4560021    -1.5259856    -0.8525367
 H      2.4271935     0.2262750    -2.6275544
 O      2.5125503     1.8534016    -1.2501590
 H      1.8528706     1.8400310    -0.5376366
 H      2.4212741     2.7401453    -1.6353452
