23
H13 C5 O5
C -3.597393 0.857584 -0.478010
O -2.176494 0.945970 -0.628232
C -1.507202 -0.049375 0.148607
C -0.020530 0.074950 -0.064346
O 0.268425 -0.337526 -1.435805
C 1.566452 -0.285767 -1.805018
O 2.460142 0.063163 -1.048432
C 1.748206 -0.678976 -3.245876
H -4.030737 1.647259 -1.094749
H -3.889219 1.006277 0.571482
H -3.965616 -0.120833 -0.817415
H -1.855236 -1.052890 -0.138699
H -1.720163 0.096499 1.218961
H 0.521721 -0.580184 0.622327
H 0.319760 1.104981 0.071472
H 1.060669 -1.480902 -3.523137
H 2.781894 -0.981959 -3.415470
H 1.526867 0.191191 -3.874754
O -2.298781 0.986296 999.910422
H -2.733189 0.739778 1000.741951
H -1.031498 0.419579 999.984077
O -0.007301 0.004418 1000.018892
H -0.122167 -0.955321 999.944320