          29
  
 C     -4.1692604    -0.6871904    -4.9239880
 C     -4.2182549    -1.9701054    -4.3373154
 C     -3.1969496    -2.4274130    -3.5093959
 C     -2.1204749    -1.5643595    -3.2821794
 C     -2.0446518    -0.2681532    -3.8713795
 C     -3.0946171     0.1662225    -4.6996129
 C     -0.8180431     0.3333552    -3.4169960
 C     -0.2137372    -0.5908305    -2.5868434
 N     -0.9902721    -1.7260883    -2.5069504
 H     -4.9875949    -0.3650031    -5.5619060
 H     -3.0698249     1.1513764    -5.1583355
 H     -5.0714806    -2.6130407    -4.5341436
 H     -3.2366203    -3.4131890    -3.0549180
 H      0.7213905    -0.5306717    -2.0470371
 H     -0.7492565    -2.5562660    -1.9827650
 C     -0.3615420     1.7311002    -3.6778206
 C      0.8411864     2.1279295    -2.7811931
 H     -1.1526105     2.4560381    -3.4589824
 H     -0.0766961     1.8634997    -4.7259082
 N      0.4733978     1.9537148    -1.3726022
 H      1.1266339     3.1681055    -2.9351500
 H      1.6968926     1.4777347    -2.9649956
 C     -0.3943647     1.1386548    -0.8624726
 C      0.0000000     0.0000000     0.0000000
 Cl    -2.0570747     1.3939299    -1.1201236
 H     -0.3566880    -0.9434016    -0.4173489
 H     -0.4193929     0.1488451     1.0001049
 H      1.0900089    -0.0168345     0.0975993
 H      1.0504115     2.4534309    -0.6962105
