26
H14 C10 O2
C 0.726576 -1.215390 -0.249990
C -0.726703 -1.215317 0.249993
C -1.423024 0.086527 -0.065473
C -0.723524 1.235732 -0.111806
C 0.723656 1.235673 0.111769
C 1.423040 0.086387 0.065501
H 0.741409 -1.360680 -1.343989
H 1.272388 -2.062108 0.178840
H -0.741556 -1.360631 1.343985
H -1.272604 -2.061961 -0.178860
H -2.503605 0.086941 -0.190084
H -1.223937 2.184975 -0.289711
H 1.224155 2.184868 0.289686
H 2.503627 0.086685 0.190142
C 1.007370 0.023169 999.928249
O 2.461358 0.034361 999.877769
C 2.997788 0.299269 998.663975
O 2.322775 0.517498 997.666809
C 4.475621 0.284830 998.729953
C 5.219877 0.523888 997.646317
H 0.762867 -0.203634 1000.964494
H 0.620366 -0.746115 999.256804
H 0.620205 1.002273 999.638836
H 4.919920 0.071486 999.697602
H 4.755887 0.735113 996.686577
H 6.304106 0.514004 997.693495