          26
   1.00000000    
 C      3.7478120    -2.5075070    -1.3734740
 C      2.3940860    -3.0757380    -1.8279430
 C      1.4780780    -3.3342160    -0.6560660
 C      1.9889530    -3.6788740     0.5407360
 C      3.4375170    -3.7775920     0.7310900
 C      4.2838530    -3.2439820    -0.1695280
 H      3.6311230    -1.4431700    -1.1056420
 H      4.4657570    -2.5385220    -2.1995050
 H      2.5531800    -4.0290200    -2.3609530
 H      1.9232690    -2.3976130    -2.5471140
 H      0.4023070    -3.2996360    -0.8132460
 H      1.3354650    -3.9148090     1.3776440
 H      3.8139320    -4.2671250     1.6265200
 H      5.3595300    -3.2788600    -0.0117080
 C     -1.9904180    -0.2761010     1.2642730
 O     -0.5364300    -0.2649090     1.2137940
 C      0.0000000     0.0000000     0.0000000
 O     -0.6750120     0.2182280    -0.9971670
 C      1.4778330    -0.0144400     0.0659770
 C      2.2220900     0.2246180    -1.0176590
 H     -2.2349200    -0.5029040     2.3005180
 H     -2.3774210    -1.0453850     0.5928280
 H     -2.3775830     0.7030030     0.9748600
 H      1.9221320    -0.2277830     1.0336260
 H      1.7580990     0.4358430    -1.9773980
 H      3.3063190     0.2147340    -0.9704800
          26
   2.00000000    
 C      3.5160506    -2.6626413    -0.6602835
 C      2.1623246    -3.2308723    -1.1147525
 C      1.2463166    -3.4893503     0.0571245
 C      1.7571916    -3.8340083     1.2539265
 C      3.2057556    -3.9327263     1.4442805
 C      4.0520916    -3.3991163     0.5436625
 H      3.3993616    -1.5983043    -0.3924515
 H      4.2339956    -2.6936563    -1.4863145
 H      2.3214186    -4.1841543    -1.6477625
 H      1.6915076    -2.5527473    -1.8339235
 H      0.1705456    -3.4547703    -0.1000555
 H      1.1037036    -4.0699433     2.0908345
 H      3.5821706    -4.4222593     2.3397105
 H      5.1277686    -3.4339943     0.7014825
 C     -2.3707875    -0.0277706     0.1223821
 O     -1.0857447    -0.1725699     0.7890550
 C      0.0000000     0.0000000     0.0000000
 O     -0.0741944     0.2609353    -1.1933208
 C      1.2460716    -0.1695743     0.7791675
 C      2.4454604    -0.0411688     0.2044392
 H     -3.1129194    -0.1984230     0.9002912
 H     -2.4596279    -0.7699285    -0.6736812
 H     -2.4606463     0.9785120    -0.2918907
 H      1.1354036    -0.4019556     1.8341618
 H      2.5349849     0.1914199    -0.8533369
 H      3.3603294    -0.1649072     0.7750352
          26
   3.00000000    
 C      2.9504053    -2.7723892    -0.1558814
 C      1.5966793    -3.3406202    -0.6103504
 C      0.6806713    -3.5990982     0.5615266
 C      1.1915463    -3.9437562     1.7583286
 C      2.6401103    -4.0424742     1.9486826
 C      3.4864463    -3.5088642     1.0480646
 H      2.8337163    -1.7080522     0.1119506
 H      3.6683503    -2.8034042    -0.9819124
 H      1.7557733    -4.2939022    -1.1433604
 H      1.1258623    -2.6624952    -1.3295214
 H     -0.3950997    -3.5645182     0.4043466
 H      0.5380583    -4.1796912     2.5952366
 H      3.0165253    -4.5320072     2.8441126
 H      4.5621233    -3.5437422     1.2058846
 C     -2.1159063     0.2277506    -1.0523554
 O     -1.3441350    -0.0342139     0.1528408
 C      0.0000000     0.0000000     0.0000000
 O      0.5465035     0.2340825    -1.0696476
 C      0.6804263    -0.2793222     1.2835696
 C      2.0135716    -0.2951274     1.3719315
 H     -3.1568144     0.1586159    -0.7413005
 H     -1.8827621    -0.5225948    -1.8106648
 H     -1.8843987     1.2259821    -1.4295019
 H      0.0444448    -0.4692212     2.1430622
 H      2.6326235    -0.1028526     0.4996886
 H      2.5139421    -0.4994885     2.3130702
          26
   23.0000000    
 C      3.1791658    -1.1953115     2.2089517
 C      1.9183961    -2.0193072     2.5147187
 C      0.9391670    -1.2433472     3.3621699
 C      1.3826673    -0.3316144     4.2477027
 C      2.8150998    -0.0576551     4.3796157
 C      3.6805114    -0.4706998     3.4348439
 H      2.9516284    -0.4456738     1.4314984
 H      3.9593676    -1.8409661     1.7928393
 H      2.1992672    -2.9364307     3.0607528
 H      1.4490052    -2.3496000     1.5823518
 H     -0.1200884    -1.4797617     3.2895705
 H      0.6884018     0.1969349     4.8971316
 H      3.1608959     0.5079420     5.2419675
 H      4.7396490    -0.2338951     3.5080274
 C     -2.1159063     0.2277506    -1.0523554
 O     -1.3441350    -0.0342139     0.1528408
 C      0.0000000     0.0000000     0.0000000
 O      0.6063066    -0.7411556    -0.7620285
 C      0.5995787     1.0376490     0.8673764
 C      1.9182509     1.2527640     0.8801493
 H     -3.1568144     0.1586159    -0.7413005
 H     -1.8827621    -0.5225948    -1.8106648
 H     -1.8843987     1.2259821    -1.4295019
 H     -0.0829838     1.6105583     1.4879767
 H      2.5847891     0.6682250     0.2516242
 H      2.3592947     2.0139728     1.5156945
