          20
  
 C      0.0406491    -2.3575242    -0.2288983
 C      0.5009892    -1.1441270     0.5277193
 O      1.2353877    -1.1433809     1.5025557
 O      0.0000000     0.0000000     0.0000000
 H     -0.9416232    -2.1734938    -0.6621123
 H     -0.0022671    -3.2171462     0.4473011
 H      0.7612795    -2.5937090    -1.0180648
 H      0.7532133     0.5601063    -0.2771012
 C     -3.3871694    -3.2654013     3.2171655
 C     -3.1588501    -2.2124761     2.1411112
 O     -2.0184787    -1.3701060     2.4266536
 H     -4.2778916    -3.8593826     2.9809218
 H     -3.5321330    -2.7945172     4.1951461
 H     -2.5314501    -3.9479905     3.2800138
 H     -4.0091150    -1.5267968     2.0824466
 H     -3.0332318    -2.6868582     1.1581533
 H     -2.3462353    -0.4598333     2.5175458
 O     -3.0273527     0.8390870     0.9680524
 H     -2.4705023     0.8786645     0.1734484
 H     -3.1447992     1.7704338     1.2166759
