          23
   1.00000000    
 C     -6.6175630     1.8260920    -3.6148600
 O     -5.3607040     2.1491110    -3.0104610
 C     -4.9101920     3.4463700    -3.4058070
 C     -3.5989800     3.7426880    -2.7246890
 O     -3.8672510     3.9146670    -1.2988620
 C     -2.7932870     4.1860190    -0.5263080
 O     -1.6630060     4.3030780    -0.9753280
 C     -3.1692010     4.2920090     0.9266800
 H     -6.8880790     0.8268720    -3.2682780
 H     -6.5355600     1.8273180    -4.7112080
 H     -7.3922280     2.5447740    -3.3124150
 H     -5.6616120     4.2058720    -3.1426710
 H     -4.7531950     3.4790450    -4.4951060
 H     -3.1636190     4.6661030    -3.1152310
 H     -2.8865120     2.9232200    -2.8514490
 H     -4.1476210     4.7624500     1.0451890
 H     -2.4040330     4.8539840     1.4631250
 H     -3.2250640     3.2808950     1.3464390
 O     -2.2914810     0.9818780    -0.1084690
 H     -2.7258890     0.7353590     0.7230600
 H     -1.0241970     0.4151610    -0.0348140
 O      0.0000000     0.0000000     0.0000000
 H     -0.1148670    -0.9597390    -0.0745710
          23
   2.00000000    
 C     -1.6757842    -5.5292361    -6.3963716
 O     -0.4189252    -5.2062171    -5.7919726
 C      0.0315868    -3.9089581    -6.1873186
 C      1.3427988    -3.6126401    -5.5062006
 O      1.0745278    -3.4406611    -4.0803736
 C      2.1484918    -3.1693091    -3.3078196
 O      2.2357690    -3.5229939    -2.1415663
 C      3.1797896    -2.3683105    -4.0551785
 H     -1.9463002    -6.5284561    -6.0497896
 H     -1.5937812    -5.5280101    -7.4927196
 H     -2.4504492    -4.8105541    -6.0939266
 H     -0.7198332    -3.1494561    -5.9241826
 H      0.1885838    -3.8762831    -7.2766176
 H      1.7781598    -2.6892251    -5.8967426
 H      2.0552668    -4.4321081    -5.6329606
 H      3.2360507    -2.6796182    -5.1004473
 H      4.1498523    -2.4750197    -3.5686986
 H      2.8857242    -1.3125768    -4.0302430
 O      0.7469895    -0.3739754    -2.3513579
 H      1.3768477     0.3374576    -2.5464588
 H      0.3329096    -0.1404734    -1.0449826
 O      0.0000000     0.0000000     0.0000000
 H     -0.5501121     0.7981008    -0.0163121
          23
   3.00000000    
 C     -5.7660588    -1.2190481     1.4424614
 O     -4.5091998    -0.8960291     2.0468604
 C     -4.0586878     0.4012299     1.6515144
 C     -2.7474758     0.6975479     2.3326324
 O     -3.0157468     0.8695269     3.7584594
 C     -1.9417828     1.1408789     4.5310134
 O     -1.2481566     2.1354505     4.3807903
 C     -1.7093242     0.0625960     5.5542379
 H     -6.0365748    -2.2182681     1.7890434
 H     -5.6840558    -1.2178221     0.3461134
 H     -6.5407238    -0.5003661     1.7449064
 H     -4.8101078     1.1607319     1.9146504
 H     -3.9016908     0.4339049     0.5622154
 H     -2.3121148     1.6209629     1.9420904
 H     -2.0350078    -0.1219201     2.2058724
 H     -2.6558052    -0.3303759     5.9316124
 H     -1.1029453     0.4565128     6.3704519
 H     -1.1662680    -0.7604693     5.0753607
 O     -0.0330924    -0.5009302     2.4443218
 H      0.8803068    -0.3887772     2.7509910
 H      0.0088295    -0.2316726     1.0811105
 O      0.0000000     0.0000000     0.0000000
 H      0.4762991    -0.7334449    -0.4183922
          23
   4.00000000    
 C      0.0120472    -5.3918310    -4.3894709
 O      1.2689062    -5.0688120    -3.7850719
 C      1.7194182    -3.7715530    -4.1804179
 C      3.0306302    -3.4752350    -3.4992999
 O      2.7623592    -3.3032560    -2.0734729
 C      3.8363232    -3.0319040    -1.3009189
 O      4.2011371    -3.7590461    -0.3893093
 C      4.4842408    -1.7311814    -1.6908459
 H     -0.2584688    -6.3910510    -4.0428889
 H      0.0940502    -5.3906050    -5.4858189
 H     -0.7626178    -4.6731490    -4.0870259
 H      0.9679982    -3.0120510    -3.9172819
 H      1.8764152    -3.7388780    -5.2697169
 H      3.4659912    -2.5518200    -3.8898419
 H      3.7430982    -4.2947030    -3.6260599
 H      4.4513923    -1.5856505    -2.7726992
 H      5.5132871    -1.7118852    -1.3306200
 H      3.9293181    -0.9111146    -1.2205046
 O      1.9185347    -1.3923945     0.7792287
 H      1.5421331    -2.0459283     1.3892597
 H      0.8386924    -0.6194895     0.3679375
 O      0.0000000     0.0000000     0.0000000
 H     -0.2762853     0.5288577     0.7640878
          23
   6.00000000    
 C     -2.8279864    -2.5942982    -8.0438204
 O     -1.5711274    -2.2712792    -7.4394214
 C     -1.1206154    -0.9740202    -7.8347674
 C      0.1905966    -0.6777022    -7.1536494
 O     -0.0776744    -0.5057232    -5.7278224
 C      0.9962896    -0.2343712    -4.9552684
 O      1.6826925    -1.1043046    -4.4405610
 C      1.2051662     1.2473487    -4.7984371
 H     -3.0985024    -3.5935182    -7.6972384
 H     -2.7459834    -2.5930722    -9.1401684
 H     -3.6026514    -1.8756162    -7.7413754
 H     -1.8720354    -0.2145182    -7.5716314
 H     -0.9636184    -0.9413452    -8.9240664
 H      0.6259576     0.2457128    -7.5441914
 H      0.9030646    -1.4971702    -7.2804094
 H      0.9608043     1.7775724    -5.7213754
 H      2.2365692     1.4428402    -4.5033744
 H      0.5364875     1.6116109    -4.0098613
 O     -0.9251340    -0.1902990    -2.3096858
 H     -1.5320492     0.5589600    -2.4154562
 H     -0.4319813    -0.0746273    -1.0150729
 O      0.0000000     0.0000000     0.0000000
 H     -0.7317700    -0.2083256     0.6008055
          23
   10.0000000    
 C     -4.5489925     1.8689222    -5.7706832
 O     -3.2921335     2.1919412    -5.1662842
 C     -2.8416215     3.4892002    -5.5616302
 C     -1.5304095     3.7855182    -4.8805122
 O     -1.7986805     3.9574972    -3.4546852
 C     -0.7247165     4.2288492    -2.6821312
 O      0.4055645     4.3459082    -3.1311512
 C     -1.1006305     4.3348392    -1.2291432
 H     -4.8195085     0.8697022    -5.4241012
 H     -4.4669895     1.8701482    -6.8670312
 H     -5.3236575     2.5876042    -5.4682382
 H     -3.5930415     4.2487022    -5.2984942
 H     -2.6846245     3.5218752    -6.6509292
 H     -1.0950485     4.7089332    -5.2710542
 H     -0.8179415     2.9660502    -5.0072722
 H     -1.7381074     5.2035879    -1.0514811
 H     -0.1977826     4.3884989    -0.6199982
 H     -1.6636723     3.4370100    -0.9488641
 O     -0.2229105     1.0247082    -2.2642922
 H     -0.9630480     0.5661152    -2.6918565
 H     -0.1061642     0.4314408    -1.0124911
 O      0.0000000     0.0000000     0.0000000
 H      0.3358493    -0.8980930    -0.1431376
          23
   11.0000000    
 C     -6.3474476     1.7307491    -4.6703807
 O     -5.0905886     2.0537681    -4.0659817
 C     -4.6400766     3.3510271    -4.4613277
 C     -3.3288646     3.6473451    -3.7802097
 O     -3.5971356     3.8193241    -2.3543827
 C     -2.5231716     4.0906761    -1.5818287
 O     -1.3928906     4.2077351    -2.0308487
 C     -2.8990856     4.1966661    -0.1288407
 H     -6.6179636     0.7315291    -4.3237987
 H     -6.2654446     1.7319751    -5.7667287
 H     -7.1221126     2.4494311    -4.3679357
 H     -5.3914966     4.1105291    -4.1981917
 H     -4.4830796     3.3837021    -5.5506267
 H     -2.8935036     4.5707601    -4.1707517
 H     -2.6163966     2.8278771    -3.9069697
 H     -2.1165690     3.7814605     0.5098587
 H     -3.8473765     3.6863232     0.0425234
 H     -3.0171662     5.2568240     0.1237301
 O     -2.0213656     0.8865351    -1.1639897
 H     -2.7834342     0.5445797    -0.6707956
 H     -0.9081352     0.3713954    -0.5098099
 O      0.0000000     0.0000000     0.0000000
 H      0.0171501    -0.9526638    -0.1788624
          23
   12.0000000    
 C     -3.7240629     0.5855265    -7.2015155
 O     -2.4672039     0.9085455    -6.5971165
 C     -2.0166919     2.2058045    -6.9924625
 C     -0.7054799     2.5021225    -6.3113445
 O     -0.9737509     2.6741015    -4.8855175
 C      0.1002131     2.9454535    -4.1129635
 O      1.0660881     2.2016555    -4.0310673
 C     -0.0679716     4.2409464    -3.3665510
 H     -3.9945789    -0.4136935    -6.8549335
 H     -3.6420599     0.5867525    -8.2978635
 H     -4.4987279     1.3042085    -6.8990705
 H     -2.7681119     2.9653065    -6.7293265
 H     -1.8596949     2.2384795    -8.0817615
 H     -0.2701189     3.4255375    -6.7018865
 H      0.0069881     1.6826545    -6.4381045
 H     -0.9721380     4.7632255    -3.6865080
 H      0.8120747     4.8671504    -3.5164119
 H     -0.1649416     4.0169031    -2.2978737
 O     -1.3112205     1.3819713    -1.6117045
 H     -1.7631612     2.0546920    -1.0786765
 H     -0.5989640     0.6155545    -0.6963368
 O      0.0000000     0.0000000     0.0000000
 H     -0.6498761    -0.5071551     0.5102049
          23
   17.0000000    
 C     -1.4768583    -3.1969570    -7.4920981
 O     -0.2199993    -2.8739380    -6.8876991
 C      0.2305127    -1.5766790    -7.2830451
 C      1.5417247    -1.2803610    -6.6019271
 O      1.2734537    -1.1083820    -5.1761001
 C      2.3474177    -0.8370300    -4.4035461
 O      2.7122316    -1.5641722    -3.4919365
 C      2.9953353     0.4636925    -4.7934731
 H     -1.7473743    -4.1961770    -7.1455161
 H     -1.3948553    -3.1957310    -8.5884461
 H     -2.2515233    -2.4782750    -7.1896531
 H     -0.5209073    -0.8171770    -7.0199091
 H      0.3875097    -1.5440040    -8.3723441
 H      1.9770857    -0.3569460    -6.9924691
 H      2.2541927    -2.0998290    -6.7286871
 H      4.0617269     0.3282249    -4.9861448
 H      2.8367266     1.2023254    -4.0071297
 H      2.5260899     0.8233589    -5.7165758
 O      0.4296292     0.8024795    -2.3233985
 H      0.8087184     1.6906546    -2.2319724
 H      0.1850154     0.3793425    -1.0219681
 O      0.0000000     0.0000000     0.0000000
 H     -0.7368427     0.5326057     0.3365236
          23
   21.0000000    
 C     -1.2455948    -0.3162662    -6.9325162
 O      0.0112642     0.0067528    -6.3281172
 C      0.4617762     1.3040118    -6.7234632
 C      1.7729882     1.6003298    -6.0423452
 O      1.5047172     1.7723088    -4.6165182
 C      2.5786812     2.0436608    -3.8439642
 O      3.2650842     1.1737273    -3.3292569
 C      2.7875578     3.5253807    -3.6871330
 H     -1.5161108    -1.3154862    -6.5859342
 H     -1.1635918    -0.3150402    -8.0288642
 H     -2.0202598     0.4024158    -6.6300712
 H     -0.2896438     2.0635138    -6.4603272
 H      0.6187732     1.3366868    -7.8127622
 H      2.2083492     2.5237448    -6.4328872
 H      2.4854562     0.7808618    -6.1691052
 H      3.0653224     3.9849650    -4.6380767
 H      3.5524927     3.7097595    -2.9321825
 H      1.8456235     3.9763580    -3.3538926
 O      0.6572576     2.0877330    -1.1983817
 H      1.0996710     2.6446943    -0.5388463
 H      0.2873011     0.9382793    -0.5095491
 O      0.0000000     0.0000000     0.0000000
 H     -0.7132615     0.2513163     0.6065907
          23
   39.0000000    
 C      0.4154196    -3.3253971    -5.6760326
 O      1.6722786    -3.0023781    -5.0716336
 C      2.1227906    -1.7051191    -5.4669796
 C      3.4340026    -1.4088011    -4.7858616
 O      3.1657316    -1.2368221    -3.3600346
 C      4.2396956    -0.9654701    -2.5874806
 O      4.9260986    -1.8354035    -2.0727733
 C      4.4485722     0.5162498    -2.4306494
 H      0.1449036    -4.3246171    -5.3294506
 H      0.4974226    -3.3241711    -6.7723806
 H     -0.3592454    -2.6067151    -5.3735876
 H      1.3713706    -0.9456171    -5.2038436
 H      2.2797876    -1.6724441    -6.5562786
 H      3.8693636    -0.4853861    -5.1764036
 H      4.1464706    -2.2282691    -4.9126216
 H      5.4671917     0.7996821    -2.7040453
 H      4.2292433     0.8106055    -1.4038481
 H      3.7582661     1.0382398    -3.1034597
 O      2.3182720    -0.9213979     0.0581020
 H      2.2318090    -1.8397905     0.3581046
 H      1.0207024    -0.4226364     0.0457740
 O      0.0000000     0.0000000     0.0000000
 H     -0.2792920     0.0838795     0.9245617
          23
   43.0000000    
 C     -0.3512340    -1.6580899    -6.7006998
 O      0.9056250    -1.3350709    -6.0963008
 C      1.3561370    -0.0378119    -6.4916468
 C      2.6673490     0.2585061    -5.8105288
 O      2.3990780     0.4304851    -4.3847018
 C      3.4730420     0.7018371    -3.6121478
 O      4.4389169    -0.0419609    -3.5302516
 C      3.3048573     1.9973300    -2.8657354
 H     -0.6217500    -2.6573099    -6.3541178
 H     -0.2692310    -1.6568639    -7.7970478
 H     -1.1258990    -0.9394079    -6.3982548
 H      0.6047170     0.7216901    -6.2285108
 H      1.5131340    -0.0051369    -7.5809458
 H      3.1027100     1.1819211    -6.2010708
 H      3.3798170    -0.5609619    -5.9372888
 H      3.2938370     2.8466866    -3.5521293
 H      4.1051852     2.1046139    -2.1329075
 H      2.3437655     1.9733779    -2.3390489
 O      2.0616083    -0.8616451    -1.1108888
 H      1.8418446    -1.7528856    -1.4244438
 H      0.9075886    -0.4053001    -0.4843192
 O      0.0000000     0.0000000     0.0000000
 H     -0.1007633    -0.5140338     0.8157636
          23
   48.0000000    
 C     -0.9999314    -4.5275183    -6.6839425
 O      0.2569276    -4.2044993    -6.0795435
 C      0.7074396    -2.9072403    -6.4748895
 C      2.0186516    -2.6109223    -5.7937715
 O      1.7503806    -2.4389433    -4.3679445
 C      2.8243446    -2.1675913    -3.5953905
 O      3.5107476    -3.0375248    -3.0806831
 C      3.0332212    -0.6858714    -3.4385592
 H     -1.2704474    -5.5267383    -6.3373605
 H     -0.9179284    -4.5262923    -7.7802905
 H     -1.7745964    -3.8088363    -6.3814975
 H     -0.0439804    -2.1477383    -6.2117535
 H      0.8644366    -2.8745653    -7.5641885
 H      2.4540126    -1.6875073    -6.1843135
 H      2.7311196    -3.4303903    -5.9205315
 H      4.0720577    -0.4607519    -3.1879503
 H      2.3598295    -0.2998945    -2.6726372
 H      2.8003753    -0.1986117    -4.3925144
 O      0.9029210    -2.1235192    -0.9498079
 H      0.1301136    -2.6729021    -1.1544281
 H      0.3806935    -0.9536012    -0.4102039
 O      0.0000000     0.0000000     0.0000000
 H     -0.3599765    -0.2266992     0.8711364
          23
   52.0000000    
 C     -2.1262886    -1.8603053    -7.8287444
 O     -0.8694296    -1.5372863    -7.2243454
 C     -0.4189176    -0.2400273    -7.6196914
 C      0.8922944     0.0562907    -6.9385734
 O      0.6240234     0.2282697    -5.5127464
 C      1.6979874     0.4996217    -4.7401924
 O      2.6638624    -0.2441763    -4.6582962
 C      1.5298027     1.7951146    -3.9937800
 H     -2.3968046    -2.8595253    -7.4821624
 H     -2.0442856    -1.8590793    -8.9250924
 H     -2.9009536    -1.1416233    -7.5262994
 H     -1.1703376     0.5194747    -7.3565554
 H     -0.2619206    -0.2073523    -8.7089904
 H      1.3276554     0.9797057    -7.3291154
 H      1.6047624    -0.7631773    -7.0653334
 H      2.0205764     2.6170014    -4.5194302
 H      1.9285331     1.6908207    -2.9842217
 H      0.4595691     2.0234879    -3.9296283
 O      0.2865538    -1.0638605    -2.2389334
 H     -0.6042232    -1.3139058    -2.5303370
 H      0.1074414    -0.4869370    -0.9868631
 O      0.0000000     0.0000000     0.0000000
 H     -0.2502034    -0.7135293     0.6067359
          23
   57.0000000    
 C     -2.5381142    -3.6240130    -7.8161393
 O     -1.2812552    -3.3009940    -7.2117403
 C     -0.8307432    -2.0037350    -7.6070863
 C      0.4804688    -1.7074170    -6.9259683
 O      0.2121978    -1.5354380    -5.5001413
 C      1.2861618    -1.2640860    -4.7275873
 O      1.9725647    -2.1340195    -4.2128800
 C      1.4950383     0.2176339    -4.5707561
 H     -2.8086302    -4.6232330    -7.4695573
 H     -2.4561112    -3.6227870    -8.9124873
 H     -3.3127792    -2.9053310    -7.5136943
 H     -1.5821632    -1.2442330    -7.3439503
 H     -0.6737462    -1.9710600    -8.6963853
 H      0.9158298    -0.7840020    -7.3165103
 H      1.1929368    -2.5268850    -7.0527283
 H      2.2903199     0.4275728    -3.8523428
 H      0.5616507     0.6885136    -4.2607061
 H      1.7949926     0.6314589    -5.5405221
 O     -0.6352618    -1.2200139    -2.0820047
 H     -1.4868032    -0.8472148    -2.3591699
 H     -0.3060116    -0.5386256    -0.9158545
 O      0.0000000     0.0000000     0.0000000
 H     -0.6173036    -0.2982701     0.6854382
          23
   120.000000    
 C     -2.8151344    -2.5755162    -8.0503942
 O     -1.5582754    -2.2524972    -7.4459952
 C     -1.1077634    -0.9552382    -7.8413412
 C      0.2034486    -0.6589202    -7.1602232
 O     -0.0648224    -0.4869412    -5.7343962
 C      1.0091416    -0.2155892    -4.9618422
 O      1.6955445    -1.0855227    -4.4471348
 C      1.2180181     1.2661307    -4.8050109
 H     -3.0856504    -3.5747362    -7.7038122
 H     -2.7331314    -2.5742902    -9.1467422
 H     -3.5897994    -1.8568342    -7.7479492
 H     -1.8591834    -0.1957362    -7.5782052
 H     -0.9507664    -0.9225632    -8.9306402
 H      0.6388096     0.2644948    -7.5507652
 H      0.9159166    -1.4783882    -7.2869832
 H      0.9736563     1.7963544    -5.7279492
 H      2.2494212     1.4616221    -4.5099482
 H      0.5493395     1.6303928    -4.0164352
 O     -0.9122820    -0.1715171    -2.3162596
 H     -1.5191972     0.5777419    -2.4220300
 H     -0.4191293    -0.0558454    -1.0216467
 O      0.0000000     0.0000000     0.0000000
 H     -0.7422990     0.2700320     0.5620757
          23
   679.000000    
 C     -3.0241043    -1.2148109    -7.9726798
 O     -1.7672453    -0.8917919    -7.3682808
 C     -1.3167333     0.4054671    -7.7636268
 C     -0.0055213     0.7017851    -7.0825088
 O     -0.2737923     0.8737641    -5.6566818
 C      0.8001717     1.1451161    -4.8841278
 O      1.7660467     0.4013181    -4.8022316
 C      0.6319870     2.4406090    -4.1377154
 H     -3.2946203    -2.2140309    -7.6260978
 H     -2.9421013    -1.2135849    -9.0690278
 H     -3.7987693    -0.4961289    -7.6702348
 H     -2.0681533     1.1649691    -7.5004908
 H     -1.1597363     0.4381421    -8.8529258
 H      0.4298397     1.6252001    -7.4730508
 H      0.7069467    -0.1176829    -7.2092688
 H     -0.2721794     2.9628881    -4.4576723
 H      1.5120333     3.0668130    -4.2875762
 H      0.5350170     2.2165657    -3.0690380
 O     -0.6112619    -0.4183661    -2.3828688
 H     -1.5642506    -0.2493490    -2.4474309
 H     -0.2903068    -0.1690810    -1.0534153
 O      0.0000000     0.0000000     0.0000000
 H     -0.8369717     0.1035080     0.4781409
          23
   681.000000    
 C     -2.5336328    -3.6045026    -7.8288046
 O     -1.2767738    -3.2814836    -7.2244056
 C     -0.8262618    -1.9842246    -7.6197516
 C      0.4849502    -1.6879066    -6.9386336
 O      0.2166792    -1.5159276    -5.5128066
 C      1.2906432    -1.2445756    -4.7402526
 O      1.9770461    -2.1145091    -4.2255453
 C      1.4995197     0.2371443    -4.5834214
 H     -2.8041488    -4.6037226    -7.4822226
 H     -2.4516298    -3.6032766    -8.9251526
 H     -3.3082978    -2.8858206    -7.5263596
 H     -1.5776818    -1.2247226    -7.3566156
 H     -0.6692648    -1.9515496    -8.7090506
 H      0.9203112    -0.7644916    -7.3291756
 H      1.1974182    -2.5073746    -7.0653936
 H      2.2948013     0.4470832    -3.8650081
 H      0.5661321     0.7080240    -4.2733714
 H      1.7994740     0.6509693    -5.5531874
 O     -0.6307805    -1.2005034    -2.0946701
 H     -1.4823218    -0.8277044    -2.3718353
 H     -0.3015302    -0.5191152    -0.9285198
 O      0.0000000     0.0000000     0.0000000
 H     -0.8187174     0.1003282     0.5094019
          23
   683.000000    
 C     -2.5307082    -3.6442890    -7.8063830
 O     -1.2738492    -3.3212700    -7.2019840
 C     -0.8233372    -2.0240110    -7.5973300
 C      0.4878748    -1.7276930    -6.9162120
 O      0.2196038    -1.5557140    -5.4903850
 C      1.2935678    -1.2843620    -4.7178310
 O      1.9799708    -2.1542954    -4.2031236
 C      1.5024444     0.1973580    -4.5609998
 H     -2.8012242    -4.6435090    -7.4598010
 H     -2.4487052    -3.6430630    -8.9027310
 H     -3.3053732    -2.9256070    -7.5039380
 H     -1.5747572    -1.2645090    -7.3341940
 H     -0.6663402    -1.9913360    -8.6866290
 H      0.9232358    -0.8042780    -7.3067540
 H      1.2003428    -2.5471610    -7.0429720
 H      0.5926786     0.6861074    -4.2058729
 H      1.8235254     0.6248078    -5.5114022
 H      2.2894023     0.3609925    -3.8156201
 O     -0.6278558    -1.2402898    -2.0722484
 H     -1.4793971    -0.8674907    -2.3494136
 H     -0.2986056    -0.5589015    -0.9060982
 O      0.0000000     0.0000000     0.0000000
 H     -0.2325511    -0.5798347     0.7413271
          23
   732.000000    
 C     -2.7729382    -2.5693945    -8.0670148
 O     -1.5160792    -2.2463755    -7.4626158
 C     -1.0655672    -0.9491165    -7.8579618
 C      0.2456448    -0.6527985    -7.1768438
 O     -0.0226262    -0.4808195    -5.7510168
 C      1.0513378    -0.2094675    -4.9784628
 O      1.7377407    -1.0794009    -4.4637554
 C      1.2602143     1.2722525    -4.8216316
 H     -3.0434542    -3.5686145    -7.7204328
 H     -2.6909352    -2.5681685    -9.1633628
 H     -3.5476032    -1.8507125    -7.7645698
 H     -1.8169872    -0.1896145    -7.5948258
 H     -0.9085702    -0.9164415    -8.9472608
 H      0.6810058     0.2706165    -7.5673858
 H      0.9581128    -1.4722665    -7.3036038
 H      0.3504486     1.7610019    -4.4665048
 H      1.5812954     1.6997023    -5.7720340
 H      2.0471722     1.4358870    -4.0762519
 O     -0.8700858    -0.1653953    -2.3328802
 H     -1.4770010     0.5838637    -2.4386506
 H     -0.3769331    -0.0497236    -1.0382674
 O      0.0000000     0.0000000     0.0000000
 H     -0.1437522     0.9181069     0.2761687
          23
   812.000000    
 C     -7.3797321    -2.8480529    -5.4717789
 O     -6.1228731    -2.5250339    -4.8673799
 C     -5.6723611    -1.2277749    -5.2627259
 C     -4.3611491    -0.9314569    -4.5816079
 O     -4.6294201    -0.7594779    -3.1557809
 C     -4.2970697     0.4413855    -2.6348772
 O     -3.3897756     1.1302941    -3.0765550
 C     -5.1574489     0.7881830    -1.4503104
 H     -7.6502481    -3.8472729    -5.1251969
 H     -7.2977291    -2.8468269    -6.5681269
 H     -8.1543971    -2.1293709    -5.1693339
 H     -6.4237811    -0.4682729    -4.9995899
 H     -5.5153641    -1.1950999    -6.3520249
 H     -3.9257881    -0.0080419    -4.9721499
 H     -3.6486811    -1.7509249    -4.7083679
 H     -4.8065723     1.7013537    -0.9648523
 H     -5.1642402    -0.0443122    -0.7460541
 H     -6.1808962     0.9620597    -1.8024360
 O     -2.1913259    -1.0265719    -0.6090781
 H     -2.6597975    -1.1693731     0.2282179
 H     -0.9703661    -0.4683192    -0.2482277
 O      0.0000000     0.0000000     0.0000000
 H      0.5122825    -0.6983150     0.4356341
          23
   964.000000    
 C     -5.9239706    -2.8727733    -7.0029028
 O     -4.6671116    -2.5497543    -6.3985038
 C     -4.2165996    -1.2524953    -6.7938498
 C     -2.9053876    -0.9561773    -6.1127318
 O     -3.1736586    -0.7841983    -4.6869048
 C     -2.8413082     0.4166651    -4.1660011
 O     -1.9340141     1.1055737    -4.6076789
 C     -3.7016874     0.7634625    -2.9814343
 H     -6.1944866    -3.8719933    -6.6563208
 H     -5.8419676    -2.8715473    -8.0992508
 H     -6.6986356    -2.1540913    -6.7004578
 H     -4.9680196    -0.4929933    -6.5307138
 H     -4.0596026    -1.2198203    -7.8831488
 H     -2.4700266    -0.0327623    -6.5032738
 H     -2.1929196    -1.7756453    -6.2394918
 H     -4.1203690    -0.1356721    -2.5243485
 H     -4.4957373     1.4433574    -3.2917548
 H     -3.0777740     1.2661701    -2.2333120
 O     -0.7355643    -1.0512923    -2.1402020
 H     -1.1281817    -1.9040844    -1.8962353
 H     -0.3204393    -0.4887535    -0.9386101
 O      0.0000000     0.0000000     0.0000000
 H      0.7554805    -0.5222454     0.3104242
          23
   1209.00000    
 C     -8.1396241    -3.5756311    -3.2261344
 O     -6.8827651    -3.2526121    -2.6217354
 C     -6.4322531    -1.9553531    -3.0170814
 C     -5.1210411    -1.6590351    -2.3359634
 O     -5.3893121    -1.4870561    -0.9101364
 C     -5.0569617    -0.2861927    -0.3892327
 O     -4.5785085     0.6190223    -1.0559599
 C     -5.3240483    -0.2316000     1.0904306
 H     -8.4101401    -4.5748511    -2.8795524
 H     -8.0576211    -3.5744051    -4.3224824
 H     -8.9142891    -2.8569491    -2.9236894
 H     -7.1836731    -1.1958511    -2.7539454
 H     -6.2752561    -1.9226781    -4.1063804
 H     -4.6856801    -0.7356201    -2.7265054
 H     -4.4085731    -2.4785031    -2.4627234
 H     -5.3339600    -1.2337772     1.5242593
 H     -6.2712609     0.2767364     1.2733339
 H     -4.5187461     0.3379468     1.5687346
 O     -2.0497556    -1.4013273     0.2480305
 H     -2.0530043    -1.7087578     1.1680296
 H     -0.9087403    -0.6152888     0.1347625
 O      0.0000000     0.0000000     0.0000000
 H      0.5159465    -0.1324571     0.8100053
          23
   1409.00000    
 C     -7.5914805    -3.1687756    -5.2012788
 O     -6.3346215    -2.8457566    -4.5968798
 C     -5.8841095    -1.5484976    -4.9922258
 C     -4.5728975    -1.2521796    -4.3111078
 O     -4.8411685    -1.0802006    -2.8852808
 C     -4.5088181     0.1206628    -2.3643771
 O     -4.0303649     1.0258778    -3.0311043
 C     -4.7759047     0.1752556    -0.8847138
 H     -7.8619965    -4.1679956    -4.8546968
 H     -7.5094775    -3.1675496    -6.2976268
 H     -8.3661455    -2.4500936    -4.8988338
 H     -6.6355295    -0.7889956    -4.7290898
 H     -5.7271125    -1.5158226    -6.0815248
 H     -4.1375365    -0.3287646    -4.7016498
 H     -3.8604295    -2.0716476    -4.4378678
 H     -5.3978521     1.0360787    -0.6300968
 H     -3.8303445     0.2093697    -0.3426590
 H     -5.3172423    -0.7328577    -0.5949662
 O     -1.5016120    -0.9944718    -1.7271139
 H     -1.5937810    -1.9293845    -1.4855245
 H     -0.6812265    -0.4481197    -0.7467726
 O      0.0000000     0.0000000     0.0000000
 H     -0.0348786    -0.5973151     0.7627925
          23
   1419.00000    
 C     -7.5762960    -3.1867580    -5.2039640
 O     -6.3194370    -2.8637390    -4.5995650
 C     -5.8689250    -1.5664800    -4.9949110
 C     -4.5577130    -1.2701620    -4.3137930
 O     -4.8259840    -1.0981830    -2.8879660
 C     -4.4936336     0.1026803    -2.3670624
 O     -4.0151803     1.0078954    -3.0337896
 C     -4.7607202     0.1572731    -0.8873990
 H     -7.8468120    -4.1859780    -4.8573820
 H     -7.4942930    -3.1855320    -6.3003120
 H     -8.3509610    -2.4680760    -4.9015190
 H     -6.6203450    -0.8069780    -4.7317750
 H     -5.7119280    -1.5338050    -6.0842100
 H     -4.1223520    -0.3467470    -4.7043350
 H     -3.8452450    -2.0896300    -4.4405530
 H     -3.9332950    -0.2784499    -0.3233265
 H     -5.6940518    -0.3605247    -0.6641305
 H     -4.8590142     1.2077626    -0.5899433
 O     -1.4864274    -1.0124542    -1.7297992
 H     -1.5785964    -1.9473669    -1.4882098
 H     -0.6660419    -0.4661022    -0.7494579
 O      0.0000000     0.0000000     0.0000000
 H      0.3526378    -0.7397822     0.5179026
          23
   1429.00000    
 C     -7.9221861    -3.6553282    -4.2963050
 O     -6.6653271    -3.3323092    -3.6919060
 C     -6.2148151    -2.0350502    -4.0872520
 C     -4.9036031    -1.7387322    -3.4061340
 O     -5.1718741    -1.5667532    -1.9803070
 C     -4.8395237    -0.3658898    -1.4594034
 O     -4.3610705     0.5393253    -2.1261306
 C     -5.1066103    -0.3112970     0.0202600
 H     -8.1927021    -4.6545482    -3.9497230
 H     -7.8401831    -3.6541022    -5.3926530
 H     -8.6968511    -2.9366462    -3.9938600
 H     -6.9662351    -1.2755482    -3.8241160
 H     -6.0578181    -2.0023752    -5.1765510
 H     -4.4682421    -0.8153172    -3.7966760
 H     -4.1911351    -2.5582002    -3.5328940
 H     -6.0732247     0.1528764     0.2272974
 H     -4.3033874     0.2330952     0.5177953
 H     -5.1319031    -1.3365252     0.4074772
 O     -1.8323176    -1.4810243    -0.8221402
 H     -1.9274046    -2.1834595    -0.1599728
 H     -0.8079104    -0.6717167    -0.3444235
 O      0.0000000     0.0000000     0.0000000
 H      0.6763162    -0.5884724     0.3689862
          23
   1461.00000    
 C     -7.4015145    -2.7894967    -5.4886660
 O     -6.1446555    -2.4664777    -4.8842670
 C     -5.6941435    -1.1692187    -5.2796130
 C     -4.3829315    -0.8729007    -4.5984950
 O     -4.6512025    -0.7009217    -3.1726680
 C     -4.3188521     0.4999417    -2.6517644
 O     -3.4115580     1.1888503    -3.0934421
 C     -5.1792313     0.8467392    -1.4671976
 H     -7.6720305    -3.7887167    -5.1420840
 H     -7.3195115    -2.7882707    -6.5850140
 H     -8.1761795    -2.0708147    -5.1862210
 H     -6.4455635    -0.4097167    -5.0164770
 H     -5.5371465    -1.1365437    -6.3689120
 H     -3.9475705     0.0505143    -4.9890370
 H     -3.6704635    -1.6923687    -4.7252550
 H     -4.7963637     0.3832467    -0.5554674
 H     -6.2065582     0.5338297    -1.6562962
 H     -5.1602301     1.9341109    -1.3296055
 O     -2.2131083    -0.9680157    -0.6259652
 H     -2.6815799    -1.1108169     0.2113308
 H     -0.9921485    -0.4097630    -0.2651148
 O      0.0000000     0.0000000     0.0000000
 H     -0.1080155     0.3631083     0.8923784
          23
   2929.00000    
 C     -5.1571376    -2.1955747    -7.3296445
 O     -3.9002786    -1.8725557    -6.7252455
 C     -3.4497666    -0.5752967    -7.1205915
 C     -2.1385546    -0.2789787    -6.4394735
 O     -2.4068256    -0.1069997    -5.0136465
 C     -2.0744752     1.0938637    -4.4927428
 O     -1.1671811     1.7827723    -4.9344206
 C     -2.9348544     1.4406612    -3.3081760
 H     -5.4276536    -3.1947947    -6.9830625
 H     -5.0751346    -2.1943487    -8.4259925
 H     -5.9318026    -1.4768927    -7.0271995
 H     -4.2011866     0.1842053    -6.8574555
 H     -3.2927696    -0.5426217    -8.2098905
 H     -1.7031936     0.6444363    -6.8300155
 H     -1.4260866    -1.0984467    -6.5662335
 H     -2.9208493     0.6399686    -2.5656398
 H     -3.9540075     1.6394726    -3.6411508
 H     -2.5328732     2.3462816    -2.8392064
 O      0.0312686    -0.3740937    -2.4669437
 H     -0.0750962    -1.3297095    -2.5950353
 H      0.0123192    -0.1908815    -1.0890191
 O      0.0000000     0.0000000     0.0000000
 H      0.5063529    -0.7294536     0.3890480
          23
   3082.00000    
 C     -5.8917684    -2.8490468    -7.0251358
 O     -4.6349094    -2.5260278    -6.4207368
 C     -4.1843974    -1.2287688    -6.8160828
 C     -2.8731854    -0.9324508    -6.1349648
 O     -3.1414564    -0.7604718    -4.7091378
 C     -2.8091060     0.4403916    -4.1882341
 O     -1.9018118     1.1293001    -4.6299119
 C     -3.6694852     0.7871890    -3.0036673
 H     -6.1622844    -3.8482668    -6.6785538
 H     -5.8097654    -2.8478208    -8.1214838
 H     -6.6664334    -2.1303648    -6.7226908
 H     -4.9358174    -0.4692668    -6.5529468
 H     -4.0274004    -1.1960938    -7.9053818
 H     -2.4378244    -0.0090358    -6.5255068
 H     -2.1607174    -1.7519188    -6.2617248
 H     -3.3186085     1.7003597    -2.5182092
 H     -3.6762764    -0.0453061    -2.2994110
 H     -4.6929324     0.9610658    -3.3557929
 O     -0.7033621    -1.0275659    -2.1624350
 H     -1.0959795    -1.8803579    -1.9184683
 H     -0.2882370    -0.4650270    -0.9608431
 O      0.0000000     0.0000000     0.0000000
 H      0.9196389     0.2812822    -0.1224697
          23
   3246.00000    
 C     -6.7778422    -3.0810545    -6.3166276
 O     -5.5209832    -2.7580355    -5.7122286
 C     -5.0704712    -1.4607765    -6.1075746
 C     -3.7592592    -1.1644585    -5.4264566
 O     -4.0275302    -0.9924795    -4.0006296
 C     -3.6951798     0.2083839    -3.4797260
 O     -2.7878856     0.8972925    -3.9214037
 C     -4.5555589     0.5551814    -2.2951592
 H     -7.0483582    -4.0802745    -5.9700456
 H     -6.6958392    -3.0798285    -7.4129756
 H     -7.5525072    -2.3623725    -6.0141826
 H     -5.8218912    -0.7012745    -5.8444386
 H     -4.9134742    -1.4281015    -7.1968736
 H     -3.3238982    -0.2410435    -5.8169986
 H     -3.0467912    -1.9839265    -5.5532166
 H     -4.2046823     1.4683521    -1.8097010
 H     -4.5623502    -0.2773137    -1.5909028
 H     -5.5790062     0.7290582    -2.6472847
 O     -1.5894359    -1.2595735    -1.4539269
 H     -2.1145934    -1.8148547    -0.8566039
 H     -0.7204726    -0.5597605    -0.6246099
 O      0.0000000     0.0000000     0.0000000
 H     -0.0721243    -0.3948597     0.8824614
          23
   3254.00000    
 C     -6.7640824    -3.1002543    -6.3148435
 O     -5.5072234    -2.7772353    -5.7104445
 C     -5.0567114    -1.4799763    -6.1057905
 C     -3.7454994    -1.1836583    -5.4246725
 O     -4.0137704    -1.0116793    -3.9988455
 C     -3.6814200     0.1891840    -3.4779418
 O     -2.7741259     0.8780926    -3.9196196
 C     -4.5417992     0.5359815    -2.2933750
 H     -7.0345984    -4.0994743    -5.9682615
 H     -6.6820794    -3.0990283    -7.4111915
 H     -7.5387474    -2.3815723    -6.0123985
 H     -5.8081314    -0.7204743    -5.8426545
 H     -4.8997144    -1.4473013    -7.1950895
 H     -3.3101384    -0.2602433    -5.8152145
 H     -3.0330314    -2.0031263    -5.5514325
 H     -4.9604808    -0.3631531    -1.8362893
 H     -5.3358491     1.2158764    -2.6036955
 H     -3.9178858     1.0386891    -1.5452527
 O     -1.5756761    -1.2787734    -1.4521427
 H     -2.1008337    -1.8340546    -0.8548197
 H     -0.7067129    -0.5789604    -0.6228258
 O      0.0000000     0.0000000     0.0000000
 H      0.3010947    -0.6202147     0.6815644
          23
   19696.0000    
 C     -6.7835825    -3.0608803    -6.3276367
 O     -5.5267235    -2.7378613    -5.7232377
 C     -5.0762115    -1.4406023    -6.1185837
 C     -3.7649995    -1.1442843    -5.4374657
 O     -4.0332705    -0.9723053    -4.0116387
 C     -3.7009201     0.2285581    -3.4907350
 O     -2.7936260     0.9174667    -3.9324128
 C     -4.5612993     0.5753556    -2.3061682
 H     -7.0540985    -4.0601003    -5.9810547
 H     -6.7015795    -3.0596543    -7.4239847
 H     -7.5582475    -2.3421983    -6.0251917
 H     -5.8276315    -0.6811003    -5.8554477
 H     -4.9192145    -1.4079273    -7.2078827
 H     -3.3296385    -0.2208693    -5.8280077
 H     -3.0525315    -1.9637523    -5.5642257
 H     -4.9799809    -0.3237790    -1.8490825
 H     -5.3553492     1.2552505    -2.6164887
 H     -3.9373859     1.0780632    -1.5580459
 O     -1.5951762    -1.2393993    -1.4649359
 H     -2.1203338    -1.7946805    -0.8676129
 H     -0.7262130    -0.5395863    -0.6356190
 O      0.0000000     0.0000000     0.0000000
 H      0.2830370    -0.6473405     0.6638483
