23
H13 C5 O5
C -4.326082 0.844214 -3.506391
O -3.069223 1.167233 -2.901992
C -2.618711 2.464492 -3.297338
C -1.307499 2.760810 -2.616220
O -1.575770 2.932789 -1.190393
C -0.501806 3.204141 -0.417839
O 0.628475 3.321200 -0.866859
C -0.877720 3.310131 1.035149
H -4.596598 -0.155006 -3.159809
H -4.244079 0.845440 -4.602739
H -5.100747 1.562896 -3.203946
H -3.370131 3.223994 -3.034202
H -2.461714 2.497167 -4.386637
H -0.872138 3.684225 -3.006762
H -0.595031 1.941342 -2.742980
H -1.856140 3.780572 1.153658
H -0.112552 3.872106 1.571594
H -0.933583 2.299017 1.454908
O 0.000000 0.000000 0.000000
H -0.434408 -0.246519 0.831529
H 1.267284 -0.566717 0.073655
O 2.291481 -0.981878 0.108469
H 2.176614 -1.941617 0.033898
$end
$end
$fadd
6	19	30
$end
$breaks
0	0
$end
$tors
5	6	30
6	8	30
19	21	30
4	5	60
21	22	60
$end