          55
  
 N      2.0675318    -0.8779700    -5.8600283
 H      1.3790904    -1.5222442    -6.2529115
 H      2.8021602    -1.4742922    -5.4726576
 C      2.6363162    -0.0624403    -6.9458219
 H      3.1504563    -0.7341816    -7.6430464
 H      3.3923935     0.6007038    -6.5133321
 C      1.6086740     0.7969492    -7.7286877
 H      2.1398396     1.3798433    -8.4909652
 H      0.9132761     0.1196933    -8.2419058
 C      0.8597023     1.7042127    -6.8044056
 H      1.4602932     2.2955413    -6.1106692
 C     -0.4633824     1.8907727    -6.8330648
 H     -1.0856734     1.3217465    -7.5227460
 H     -1.6424018     3.6665099    -6.5525170
 C     -1.1844927     2.8781554    -5.9484981
 H     -0.5120034     3.3224883    -5.2074267
 C     -2.2768827     2.1914617    -5.1659431
 O     -2.9272284     2.6057903    -4.2594825
 Cl    -2.5432695     0.4539428    -5.7356596
 C      0.3578297    -0.7733075     5.8766215
 C      1.2696155    -0.9012183     4.8117958
 C     -0.9871066    -0.8548465     5.6142500
 C      0.8762988    -1.1004782     3.4957972
 C     -0.5309875    -1.1709952     3.1806520
 C     -1.4565206    -1.0521851     4.2895708
 H     -1.7208812    -0.7681067     6.4117481
 H      0.7215231    -0.6163768     6.8883051
 H      2.3351091    -0.8460320     5.0237855
 C      2.0038086    -1.3034757     2.5091335
 C     -0.3392489    -1.3952441     0.5582596
 H      1.8222126    -0.7929275     1.5631650
 C      2.2928703    -2.7960711     2.2227932
 H      2.9119895    -0.8602045     2.9330744
 H      2.6667263    -3.2707862     3.1368558
 N      3.2686940    -3.0276558     1.1432232
 H      1.3623873    -3.3113499     1.9579760
 C      0.8203881    -0.0832750    -1.2853609
 H      4.1559819    -2.5903567     1.3978310
 H      2.9520194    -2.5304376     0.3063781
 O      0.1278858     0.4753787    -2.4277586
 H      0.5800616     0.1580471    -3.2264857
 C      0.0000000     0.0000000     0.0000000
 H      1.1002647    -1.1229376    -1.4951742
 H      1.7363014     0.5082204    -1.1892161
 H      0.5431453     0.5967779     0.7440762
 H     -0.9315701     0.5391552    -0.2142243
 C     -1.1038360    -1.3477054     1.8672086
 C     -2.4833604    -1.4279579     1.7354293
 C     -3.3696985    -1.3245655     2.8237465
 C     -2.8579820    -1.1309087     4.0824856
 H     -4.4414520    -1.3942520     2.6602076
 H     -3.5120509    -1.0382196     4.9461378
 H     -2.8928433    -1.5702175     0.7378359
 H      0.5701843    -1.9904549     0.6258267
 H     -0.9782503    -1.8986228    -0.1763382
